datagen/Fecamp Test Case - SSTool/matpower7.1/data/case13659pegase.m
function mpc = case13659pegase
%CASE13659PEGASE  Power flow data for European system with step-up transformers.
%   Please see CASEFORMAT for details on the case file format.
%
%   This case accurately represents the size and complexity of the European
%   high voltage transmission network. The network contains 13,659 buses,
%   4,092 generators, and 20,467 branches and it operates at 750, 400, 380,
%   330, 220, 154, 150, 120, and 110 kV. Low voltage buses ranging from 
%   27,000 to 400 V are used to model step-up transformers which connect 
%   generators to the high-voltage network. Please note that the data are
%   fictitious and do not correspond to real world data. They can thus be
%   used to validate methods and tools but should not be used for operation
%   and planning of the European grid.
%
%   The data stems from the Pan European Grid Advanced Simulation and State
%   Estimation (PEGASE) project, part of the 7th Framework Program of the
%   European Union (https://www.fp7-pegase.com/).
%
%   When publishing results based on this data, please cite:
%
%     C. Josz, S. Fliscounakis, J. Maeght, and P. Panciatici, "AC Power Flow
%     Data in MATPOWER and QCQP Format: iTesla, RTE Snapshots, and PEGASE"
%     https://arxiv.org/abs/1603.01533
%
%     S. Fliscounakis, P. Panciatici, F. Capitanescu, and L. Wehenkel,
%     "Contingency ranking with respect to overloads in very large power
%     systems taking into account uncertainty, preventive and corrective
%     actions", Power Systems, IEEE Trans. on, (28)4:4909-4917, 2013.
%     https://doi.org/10.1109/TPWRS.2013.2251015
%
%   Remarks:
%
%   1. Line flow limits are the current flow limits found in PEGASE data.
%
%   2. PEGASE data contains asymmetric shunt conductance and susceptance in
%   the PI transmission line model of branches. Thus total line charging
%   susceptance of branches is set to 0 p.u. and the nodal representation
%   of shunt condutance and susceptance is used. As a result, power flow
%   equations are left unchanged compared with original PEGASE data.
%   However, line flow constraints in the optimal flow problem are
%   modified.
%
%   3. Identical linear costs are used for all generators to form a loss
%   minimizing OPF objective function.
%
%   4. Since some parts of the network are aggregated, some generators
%   (e.g. with negative PMIN) represent aggregations of multiple loads
%   and generators.
%
%   Contacts:
%     Cédric Josz, Stéphane Fliscounakis, Jean Maeght, Patrick Panciatici
%     firstname.lastname@rte-france.com
%     Réseau de Transport d'Electricité (French Transmission System Operator)
%     Département Expertise Système, Immeuble "Le Colbert"
%     9 rue de la Porte de Buc, 78000 Versailles Cedex, France
%
%   March 4th, 2016

%   MATPOWER
%   Copyright (c) 2016 by Cédric Josz, Stéphane Fliscounakis, Jean Maeght,
%   and Patrick Panciatici
%   Licensed under the Creative Commons Attribution 4.0 International license,
%   https://creativecommons.org/licenses/by/4.0/

%% MATPOWER Case Format : Version 2
mpc.version = '2';

%%-----  Power Flow Data  -----%%
%% system MVA base
mpc.baseMVA = 100;

%% bus data
%	bus_i	type	Pd	Qd	Gs	Bs	area	Vm	Va	baseKV	zone	Vmax	Vmin
mpc.bus = [
	1	3	0	0	0	0	0	1.031695	0	20	6	1.1	0.9;
	2	1	72.68	45	0	6.61	0	1.00238	-9.035194	150	9	1.1	0.9;
	3	1	378.4	98.5	0	16.61	0	0.989665	-7.514519	220	6	1.1	0.9;
	4	1	134	19.1	0	0.08	0	1.005027	12.325176	154	1	1.1	0.9;
	5	1	151	48.8	0	4.69	0	0.98998	7.445755	220	5	1.1	0.9;
	6	1	171.41	23.4	0	2.1	0	1.004053	22.504675	220	5	1.1	0.9;
	7	1	45.95	14	0	13.34	0	0.978685	-21.610492	220	6	1.1	0.9;
	8	1	343.4	53.1	0.70508	36.832433	0	1.023941	-13.3046	380	6	1.1	0.9;
	9	1	-0	-0	0	75.076713	0	0.995208	14.929241	380	5	1.1	0.9;
	10	1	31.03	10.3	0	0.65	0	0.935403	-13.105656	110	21	1.1	0.9;
	11	1	0	-0	0	3.41	0	1.038279	3.372868	154	1	1.1	0.9;
	12	2	0	0	0	0	0	1.004054	96.865589	20	3	1.1	0.9;
	13	1	14.3	2	0	1.91	0	1.046187	21.142072	154	1	1.1	0.9;
	14	1	134	24.7	0	12.44	0	1.028056	6.025887	220	5	1.1	0.9;
	15	1	0	0	0	0	0	0.966985	-9.629605	150	9	1.1	0.9;
	16	1	-6.11	2	0	0.47	0	1.048294	-4.845447	150	9	1.1	0.9;
	17	1	-22.74	-8.32	0	6.5	0	1.01052	-21.436889	220	6	1.1	0.9;
	18	2	0	0	0	0	0	1.043087	11.638661	20	14	1.1	0.9;
	19	1	59.67	26.7	0	12.84	0	1.029741	-21.109094	220	4	1.1	0.9;
	20	1	30.6	4.3	0	5.15	0	0.995795	32.041235	154	1	1.1	0.9;
	21	1	0	-0	0.234457	-0.195381	0	1.024139	-12.441425	380	6	1.1	0.9;
	22	1	67.67	12.1	0	2.18	0	1.012996	31.441278	220	3	1.1	0.9;
	23	1	0	0	0.295874	20.603438	0	1.023227	43.176177	380	3	1.1	0.9;
	24	1	25.33	7.5	0	2.39	0	0.977442	-13.211902	110	12	1.1	0.9;
	25	1	1.4	0.2	0	4.93	0	1.01187	32.552868	154	1	1.1	0.9;
	26	1	161.2	39.3	0	30.71	0	1.030926	8.56355	220	5	1.1	0.9;
	27	1	0	-0	0	0.85	0	1.032196	11.548192	220	5	1.1	0.9;
	28	1	19.62	7.1	0	1.15	0	0.994911	-5.413569	110	19	1.1	0.9;
	29	2	0	0	0	0	0	1.033319	1.207015	20	18	1.1	0.9;
	30	1	31.94	8.8	0	0.73	0	1.014217	-5.598531	110	22	1.1	0.9;
	31	1	0	-0	0.235277	0.313936	0	1.029519	36.693892	220	3	1.1	0.9;
	32	1	167.3	54.8	0	110.54	0	1.008442	25.900391	380	5	1.1	0.9;
	33	2	0	0	0	0	0	1.018631	-11.528817	20	4	1.1	0.9;
	34	1	-0	0	0	14.82	0	1.050355	40.500598	380	13	1.1	0.9;
	35	1	0	0	0	0	0	1.009463	-9.554155	150	9	1.1	0.9;
	36	1	152.9	49.4	0	27.65	0	0.978505	14.001978	380	5	1.1	0.9;
	37	1	-0	0	0	0.56	0	1.027858	-7.880552	150	9	1.1	0.9;
	38	1	69.68	43.2	0	6.3	0	0.914844	-11.630868	150	9	1.1	0.9;
	39	2	0	0	0	0	0	1.073284	1.2557	20	9	1.1	0.9;
	40	1	0	-0	0	37.54	0	1.002842	-15.045231	220	4	1.1	0.9;
	41	1	0	-0	0	0.25	0	1.020848	-10.580356	220	4	1.1	0.9;
	42	2	0	0	0	0	0	0.985213	28.561806	11	1	1.1	0.9;
	43	1	13.51	4.9	0	1.8	0	1.021293	-2.929459	110	19	1.1	0.9;
	44	1	10.51	3.5	0	0.31	0	0.990534	-11.414462	110	12	1.1	0.9;
	45	2	0	0	0	0	0	1.012099	-18.860818	20	4	1.1	0.9;
	46	1	-0	0	0.12	15.34	0	1.039103	0.763772	220	19	1.1	0.9;
	47	1	9.21	2.6	0	2	0	0.9757	-6.904131	110	18	1.1	0.9;
	48	1	42.75	12.8	0	13.3	0	1.049416	58.695823	220	8	1.1	0.9;
	49	1	-0	0	0.019959	0.320041	0	0.998825	-10.375539	150	10	1.1	0.9;
	50	1	16.02	4.54	0	0.1	0	0.983186	-8.374635	110	23	1.1	0.9;
	51	2	0	0	0	0	0	1.011416	44.498643	14.4	1	1.1	0.9;
	52	1	27.9	4	0	4.23	0	0.988125	16.109775	154	1	1.1	0.9;
	53	1	20.82	7.9	0	26.89	0	1.016129	-21.455497	380	4	1.1	0.9;
	54	2	0	0	0	0	0	1.021005	21.987746	20	14	1.1	0.9;
	55	1	0	0	0	7.27	0	1.036171	8.177694	220	5	1.1	0.9;
	56	1	10.11	3.7	0	0.81	0	1.04206	-2.933811	110	19	1.1	0.9;
	57	1	10.01	2.7	0	1.14	0	0.954805	-6.844584	110	18	1.1	0.9;
	58	1	6.31	-0	0	0.67	0	0.981092	-5.140628	110	18	1.1	0.9;
	59	1	2.9	0.9	0	0.6	0	1.038133	-3.37057	110	15	1.1	0.9;
	60	1	-0	0	0.318913	17.760815	0	1.006337	-6.766633	220	6	1.1	0.9;
	61	1	-0	-0	0.549745	0.432068	0	1.047066	36.05057	380	2	1.1	0.9;
	62	2	0	0	0	0	0	1.058268	15.875889	20	5	1.1	0.9;
	63	2	0	0	0	0	0	1.058268	15.875889	20	5	1.1	0.9;
	64	1	151.8	48.3	0	5.53	0	1.009945	-20.345542	220	4	1.1	0.9;
	65	1	127.6	31.8	0	20.51	0	0.99193	25.086276	150	8	1.1	0.9;
	66	2	0	0	0	0	0	1.034768	8.492541	20	22	1.1	0.9;
	67	1	0	0	0	0.84	0	0.975466	-6.422787	110	21	1.1	0.9;
	68	2	0	0	0	0	0	1.035023	-10.739655	20	4	1.1	0.9;
	69	2	0	0	0	0	0	1.035023	-10.739655	20	4	1.1	0.9;
	70	1	110.5	-26.8	0	16.37	0	1.007417	-5.990692	220	6	1.1	0.9;
	71	1	-0	-0	0	0	0	1.0206	13.215214	20	5	1.1	0.9;
	72	1	-0	-0	0	0	0	1.0206	13.215214	20	5	1.1	0.9;
	73	1	0	0	0	1.23	0	0.993601	33.018065	220	3	1.1	0.9;
	74	1	0	-0	0	0	0	1.024981	18.183447	20	5	1.1	0.9;
	75	1	0	-0	0	0	0	1.024981	18.183447	20	5	1.1	0.9;
	76	1	0	-0	0	0	0	1.024981	18.183447	20	5	1.1	0.9;
	77	2	0	0	0	0	0	1.038344	11.554722	20	5	1.1	0.9;
	78	2	0	0	0	0	0	1.027383	17.740146	20	5	1.1	0.9;
	79	2	0	0	0	0	0	1.016716	24.455607	20	5	1.1	0.9;
	80	1	140	79.7	0	6.5	0	1.009229	11.978416	220	3	1.1	0.9;
	81	1	21.6	3	0	3.54	0	0.990476	15.061407	154	1	1.1	0.9;
	82	1	0	-0	0	2.31	0	1.005323	7.725281	380	5	1.1	0.9;
	83	1	119.2	20.7	0	3.31	0	1.01756	5.059048	220	5	1.1	0.9;
	84	1	26.43	9.9	0	9.57	0	0.989474	-14.141367	110	22	1.1	0.9;
	85	1	0.24	-1.66	0	0.65	0	1.024209	3.944647	110	18	1.1	0.9;
	86	2	0	0	0	0	0	1.023881	-4.354948	20	6	1.1	0.9;
	87	1	-0	0	0	0	0	1.014629	-9.004047	20	6	1.1	0.9;
	88	1	-0	0	0	0	0	1.014629	-9.004047	20	6	1.1	0.9;
	89	1	0	0	0	58.57	0	1.067567	73.239254	380	3	1.1	0.9;
	90	1	-0	0	0	1.34	0	0.965658	-5.045088	110	18	1.1	0.9;
	91	1	187.9	110.2	0	21.25	0	1.016938	32.836298	380	3	1.1	0.9;
	92	1	14.92	5.5	0	1.31	0	1.05599	-0.961794	110	15	1.1	0.9;
	93	1	-18.52	6.1	0	0.79	0	0.929361	-10.259554	150	9	1.1	0.9;
	94	2	0	0	0	0	0	1.022611	22.294732	11	1	1.1	0.9;
	95	1	4.61	1.7	0	2.32	0	0.989635	-2.082376	110	19	1.1	0.9;
	96	2	0	0	0	0	0	1.043225	-4.501166	20	4	1.1	0.9;
	97	2	0	0	0	0	0	1.043225	-4.501166	20	4	1.1	0.9;
	98	2	0	0	0	0	0	1.043225	-4.501166	20	4	1.1	0.9;
	99	2	0	0	0	0	0	1.031885	-12.651409	20	4	1.1	0.9;
	100	2	0	0	0	0	0	1.031885	-12.651409	20	4	1.1	0.9;
	101	2	0	0	0	0	0	1.043225	-4.501166	20	4	1.1	0.9;
	102	2	0	0	0	0	0	1.043225	-4.501166	20	4	1.1	0.9;
	103	1	62.87	20.5	0	1.15	0	0.989544	23.826254	150	8	1.1	0.9;
	104	2	0	0	0	0	0	1.052257	44.731305	20	3	1.1	0.9;
	105	1	13.5	14.8	0	132.435168	0	1.141691	0.929631	380	9	1.2	0.8;
	106	1	126.3	42.4	0	55.24	0	1.033923	30.21213	150	8	1.1	0.9;
	107	2	0	0	0	0	0	1.028153	78.700831	20	3	1.1	0.9;
	108	1	6.91	-4.6	0	5.75	0	1.02024	-13.484638	220	4	1.1	0.9;
	109	1	15.72	5.2	0	0.11	0	0.99755	-13.611914	110	12	1.1	0.9;
	110	2	0	0	0	0	0	1.051233	87.799236	20	3	1.1	0.9;
	111	1	16.12	4.3	0	0.49	0	1.040632	-1.700832	110	23	1.1	0.9;
	112	1	38.74	6.1	0	1.17	0	1.014811	-25.695432	220	4	1.1	0.9;
	113	1	22.13	10.7	0	14.21	0	1.049481	58.705166	220	8	1.1	0.9;
	114	2	0	0	0	0	0	1.030832	-9.752509	20	4	1.1	0.9;
	115	2	0	0	0	0	0	1.019	-2.975058	20	10	1.1	0.9;
	116	1	0	-0	0	0.73	0	1.01569	-23.117496	220	4	1.1	0.9;
	117	1	0	0	0	0.83	0	0.98256	1.655497	110	18	1.1	0.9;
	118	1	138.8	136.7	0	8.76	0	1.005586	39.420522	380	3	1.1	0.9;
	119	1	137.3	66.4	0.174767	14.17407	0	1.047225	-3.097806	220	23	1.1	0.9;
	120	1	67.76	19.18	0	1.47	0	0.992206	88.681174	150	1	1.1	0.9;
	121	2	0	0	0	0	0	1.045359	10.101302	20	14	1.1	0.9;
	122	1	0	-0	0	6.62	0	0.989992	37.681252	220	3	1.1	0.9;
	123	1	-0	-0	0	7.22	0	1.015598	45.599895	380	1	1.1	0.9;
	124	1	1	0.3	0	0.19	0	1.046082	-0.185974	110	19	1.1	0.9;
	125	1	20.9	3	0	5.74	0	0.979547	43.485266	154	1	1.1	0.9;
	126	1	0	0	0	0.12	0	1.054143	-2.947678	150	9	1.1	0.9;
	127	1	21.52	5.1	0	0.5	0	1.015831	7.375377	110	18	1.1	0.9;
	128	1	71.98	28.8	0	11	0	0.992515	-4.018187	220	6	1.1	0.9;
	129	1	0	0	0.205132	4.470744	0	0.992133	32.281513	380	2	1.1	0.9;
	130	1	363.25	115.39	0	3.95	0	1.032584	1.551181	220	5	1.1	0.9;
	131	1	192.9	73.3	0	20.75	0	1.01593	31.223648	380	3	1.1	0.9;
	132	2	0	0	0	0	0	0.996117	32.042491	11	1	1.1	0.9;
	133	2	0	0	0	0	0	1.042317	14.274354	20	14	1.1	0.9;
	134	2	0	0	0	0	0	1.044129	-4.738961	20	4	1.1	0.9;
	135	2	0	0	0	0	0	1.030832	-9.752509	20	4	1.1	0.9;
	136	2	0	0	0	0	0	1.049674	87.363329	20	3	1.1	0.9;
	137	1	17.52	6.3	0	0.26	0	1.033716	0.043737	110	19	1.1	0.9;
	138	1	33.14	12	0	0.65	0	0.998323	-1.616561	110	19	1.1	0.9;
	139	1	40.44	25	0	9.82	0	0.982498	-8.529449	150	9	1.1	0.9;
	140	1	193.17	53.37	0	4.58	0	1.007093	11.733465	220	5	1.1	0.9;
	141	1	90.7	25.5	0	3.11	0	1.086033	24.723865	220	3	1.2	0.8;
	142	1	176.3	-58.9	0	24.77	0	1.010147	0.04267	380	6	1.1	0.9;
	143	1	35.94	22.3	0	0	0	1.041468	-6.86067	150	9	1.1	0.9;
	144	2	0	0	0	0	0	1.034631	4.683321	20	14	1.1	0.9;
	145	2	0	0	0	0	0	1.040587	38.218788	20	5	1.1	0.9;
	146	2	0	0	0	0	0	1.044313	37.077846	20	5	1.1	0.9;
	147	2	0	0	0	0	0	1.044313	37.077846	20	5	1.1	0.9;
	148	1	143.9	123.2	0	72.64	0	1.01726	31.78152	380	3	1.1	0.9;
	149	1	-0	-0	0	3.77	0	0.998552	-23.031405	220	6	1.1	0.9;
	150	1	-0	8.4	0	15.72	0	1.035657	-6.436529	150	9	1.1	0.9;
	151	2	0	0	0	0	0	1.023215	19.248221	13.8	1	1.1	0.9;
	152	1	51.36	-8.8	0	2.15	0	0.957631	-29.999659	220	6	1.1	0.9;
	153	2	0	0	0	0	0	1.027348	16.396901	20	14	1.1	0.9;
	154	2	0	0	0	0	0	1.05252	75.282812	20	3	1.1	0.9;
	155	1	-0	-0	0	82.55	0	1.018112	-4.652605	380	6	1.1	0.9;
	156	2	0	0	0	0	0	1.034597	19.022639	20	6	1.1	0.9;
	157	1	322.7	11.9	0	10.28	0	0.997201	-11.924333	380	6	1.1	0.9;
	158	1	303.6	79.8	0.019533	1.690467	0	1.030319	13.564017	220	5	1.1	0.9;
	159	1	3.8	1.3	0	0.4	0	1.003488	6.243881	110	18	1.1	0.9;
	160	1	137	19.5	0	4.9	0	1.005167	12.788654	154	1	1.1	0.9;
	161	2	0	0	0	0	0	1.034597	19.022639	20	6	1.1	0.9;
	162	2	0	0	0	0	0	1.034597	19.022639	20	6	1.1	0.9;
	163	1	0	0	0	0	0	0.998875	-9.905754	150	9	1.1	0.9;
	164	1	61.07	36	0	3.09	0	1.048414	5.258031	220	11	1.1	0.9;
	165	2	0	0	0	0	0	1.030832	-9.752509	20	4	1.1	0.9;
	166	1	-0	0	0	3.24	0	1.069303	18.198045	220	3	1.1	0.9;
	167	1	0	0	0	6.520303	0	1.025278	15.598401	380	5	1.1	0.9;
	168	1	55.7	7.9	0	4.21	0	0.982808	36.169129	154	1	1.1	0.9;
	169	1	0	0	0	4.21	0	1.043196	10.569078	220	5	1.1	0.9;
	170	1	1.8	0.7	0	0.3	0	0.963316	-5.114898	110	19	1.1	0.9;
	171	1	0	-0	0	0.71	0	1.004078	-8.960914	150	9	1.1	0.9;
	172	1	2.5	0	0	0.96	0	0.954773	-7.079414	110	18	1.1	0.9;
	173	1	0	0	0	0.09	0	1.071275	1.379824	150	9	1.1	0.9;
	174	1	38.94	11	0	0.64	0	0.982878	-10.227511	110	1	1.1	0.9;
	175	1	45.15	14.1	0	0.19	0	1.055172	-2.479395	110	15	1.1	0.9;
	176	1	0	-0	0	5.75	0	0.995048	32.610865	220	3	1.1	0.9;
	177	1	0	0	0.019004	4.360996	0	1.045733	7.66394	220	11	1.1	0.9;
	178	1	0	-0	0.566322	-0.241138	0	1.066307	38.390318	220	5	1.1	0.9;
	179	2	0	0	0	0	0	1.023144	-9.538309	20	4	1.1	0.9;
	180	1	17.22	5.7	0	1.22	0	0.938533	-9.006406	110	21	1.1	0.9;
	181	1	-0	-0	0	0	0	1.020557	9.624602	20	14	1.1	0.9;
	182	2	0	0	0	0	0	1.054937	4.624127	20	20	1.1	0.9;
	183	1	0	0	0	4.3	0	1.005985	0.980119	220	6	1.1	0.9;
	184	1	23.73	12.7	0	0.52	0	1.018182	14.939378	220	5	1.1	0.9;
	185	1	121.9	7.4	0	1.34	0	1.01375	15.934135	220	3	1.1	0.9;
	186	1	0	-0	0.135375	47.750675	0	1.043206	-19.578893	380	10	1.1	0.9;
	187	1	47.35	16.4	0	4.08	0	1.0253	-13.383559	110	22	1.1	0.9;
	188	1	-0	0	0	0	0	1.021419	-22.29244	20	4	1.1	0.9;
	189	1	-0	-0	0	21.39	0	1.043162	-16.102529	380	1	1.1	0.9;
	190	1	38.14	12.5	0	6.28	0	1.000545	26.619584	150	8	1.1	0.9;
	191	1	54.2	7.8	0	94.9	0	0.973826	31.884786	400	1	1.1	0.9;
	192	1	130.6	84.9	0	4.22	0	1.007461	6.385629	220	7	1.1	0.9;
	193	1	7.91	2.6	0	0.74	0	0.982641	-11.113148	110	12	1.1	0.9;
	194	1	42.1	74.61	0	37.58	0	0.983941	88.980027	150	1	1.1	0.9;
	195	1	-75.38	7.8	0	29.9	0	1.058902	-14.107366	380	10	1.1	0.9;
	196	2	0	0	0	0	0	1.021915	-9.376379	20	6	1.1	0.9;
	197	2	0	0	0	0	0	1.005341	-1.941399	20	4	1.1	0.9;
	198	1	41.05	14.3	0	11.53	0	1.002832	0.458665	220	6	1.1	0.9;
	199	1	-0	-0	0	4.14	0	1.012917	48.51202	220	8	1.1	0.9;
	200	1	100.9	49.3	0.020067	4.329933	0	0.982261	24.304858	220	13	1.1	0.9;
...
];

%% generator data
%	bus	Pg	Qg	Qmax	Qmin	Vg	mBase	status	Pmax	Pmin	Pc1	Pc2	Qc1min	Qc1max	Qc2min	Qc2max	ramp_agc	ramp_10	ramp_30	ramp_q	apf
mpc.gen = [
	1	42.33	15.72	40	-10	1.031695	100	1	100	28.22	0	0	0	0	0	0	0	0	0	0	0;
	12	238.58	-4.09	210	-50	1.004054	100	1	500	100	0	0	0	0	0	0	0	0	0	0	0;
	18	38.02	11.21	30	-10	1.043087	100	1	100	25.35	0	0	0	0	0	0	0	0	0	0	0;
	29	34.78	14.67	30	-10	1.033319	100	1	100	23.19	0	0	0	0	0	0	0	0	0	0	0;
	33	25.35	8.5	40	-10	1.018631	100	1	100	16.9	0	0	0	0	0	0	0	0	0	0	0;
	39	214.6	55.92	210	-50	1.073284	100	1	500	100	0	0	0	0	0	0	0	0	0	0	0;
	42	16.1	-4.12	20	-20	0.985213	100	1	100	10.73	0	0	0	0	0	0	0	0	0	0	0;
	45	192.55	1.87	160	-40	1.012099	100	1	400	100	0	0	0	0	0	0	0	0	0	0	0;
	51	161	0.83	90	-90	1.011416	100	1	400	100	0	0	0	0	0	0	0	0	0	0	0;
	54	37.08	5.51	30	-10	1.021005	100	1	100	24.72	0	0	0	0	0	0	0	0	0	0	0;
	62	617.7	178.65	520	-120	1.058268	100	1	1300	400	0	0	0	0	0	0	0	0	0	0	0;
	63	617.7	178.65	520	-120	1.058268	100	1	1300	400	0	0	0	0	0	0	0	0	0	0	0;
	66	179.12	14.03	160	-40	1.034768	100	1	400	100	0	0	0	0	0	0	0	0	0	0	0;
	68	53.72	11.91	40	-10	1.035023	100	1	200	35.81	0	0	0	0	0	0	0	0	0	0	0;
	69	53.72	11.91	40	-10	1.035023	100	1	200	35.81	0	0	0	0	0	0	0	0	0	0	0;
	77	24.65	6.97	30	-10	1.038344	100	1	100	16.43	0	0	0	0	0	0	0	0	0	0	0;
	78	54.48	10.37	30	-10	1.027383	100	1	200	36.32	0	0	0	0	0	0	0	0	0	0	0;
	79	18.13	3.85	30	-10	1.016716	100	1	100	12.09	0	0	0	0	0	0	0	0	0	0	0;
	86	152.7	32.92	80	-20	1.023881	100	1	400	100	0	0	0	0	0	0	0	0	0	0	0;
	94	17.64	3.05	20	-10	1.022611	100	1	100	11.76	0	0	0	0	0	0	0	0	0	0	0;
	96	49.42	5.32	40	-10	1.043225	100	1	100	32.95	0	0	0	0	0	0	0	0	0	0	0;
	97	49.42	5.32	40	-10	1.043225	100	1	100	32.95	0	0	0	0	0	0	0	0	0	0	0;
	98	49.42	5.32	40	-10	1.043225	100	1	100	32.95	0	0	0	0	0	0	0	0	0	0	0;
	99	23.85	6.18	40	-10	1.031885	100	1	100	15.9	0	0	0	0	0	0	0	0	0	0	0;
	100	23.85	6.18	40	-10	1.031885	100	1	100	15.9	0	0	0	0	0	0	0	0	0	0	0;
	101	49.42	5.32	40	-10	1.043225	100	1	100	32.95	0	0	0	0	0	0	0	0	0	0	0;
	102	49.42	5.32	40	-10	1.043225	100	1	100	32.95	0	0	0	0	0	0	0	0	0	0	0;
	104	87.95	47.73	60	-20	1.052257	100	1	200	58.63	0	0	0	0	0	0	0	0	0	0	0;
	107	68.26	9.75	60	-20	1.028153	100	1	200	45.51	0	0	0	0	0	0	0	0	0	0	0;
	110	91.47	10.42	60	-20	1.051233	100	1	200	60.98	0	0	0	0	0	0	0	0	0	0	0;
	114	42.35	6.03	40	-10	1.030832	100	1	100	28.23	0	0	0	0	0	0	0	0	0	0	0;
	115	22.35	5.33	30	-10	1.019	100	1	100	14.9	0	0	0	0	0	0	0	0	0	0	0;
	121	36.03	16.08	30	-10	1.045359	100	1	100	24.02	0	0	0	0	0	0	0	0	0	0	0;
	132	6.52	0.05	10	-10	0.996117	100	1	100	4.35	0	0	0	0	0	0	0	0	0	0	0;
	133	36.77	13.93	30	-10	1.042317	100	1	100	24.51	0	0	0	0	0	0	0	0	0	0	0;
	134	45.54	5.69	40	-10	1.044129	100	1	100	30.36	0	0	0	0	0	0	0	0	0	0	0;
	135	42.35	6.03	40	-10	1.030832	100	1	100	28.23	0	0	0	0	0	0	0	0	0	0	0;
	136	50.83	3.96	60	-20	1.049674	100	1	200	33.89	0	0	0	0	0	0	0	0	0	0	0;
	144	17.8	10.21	30	-10	1.034631	100	1	100	11.87	0	0	0	0	0	0	0	0	0	0	0;
	145	612.01	227.35	520	-120	1.040587	100	1	1300	400	0	0	0	0	0	0	0	0	0	0	0;
	146	612.04	259.97	520	-120	1.044313	100	1	1300	400	0	0	0	0	0	0	0	0	0	0	0;
	147	612.04	259.97	520	-120	1.044313	100	1	1300	400	0	0	0	0	0	0	0	0	0	0	0;
	151	204	30.47	150	-60	1.023215	100	1	500	100	0	0	0	0	0	0	0	0	0	0	0;
	153	36.13	4.17	30	-10	1.027348	100	1	100	24.09	0	0	0	0	0	0	0	0	0	0	0;
	154	766.83	2.68	520	-120	1.05252	100	1	1600	500	0	0	0	0	0	0	0	0	0	0	0;
	156	49.34	9.15	40	-10	1.034597	100	1	100	32.89	0	0	0	0	0	0	0	0	0	0	0;
	161	49.34	9.15	40	-10	1.034597	100	1	100	32.89	0	0	0	0	0	0	0	0	0	0	0;
	162	49.34	9.15	40	-10	1.034597	100	1	100	32.89	0	0	0	0	0	0	0	0	0	0	0;
	165	42.35	6.03	40	-10	1.030832	100	1	100	28.23	0	0	0	0	0	0	0	0	0	0	0;
	179	95.02	8.09	60	-20	1.023144	100	1	200	63.35	0	0	0	0	0	0	0	0	0	0	0;
	182	34.96	12.97	30	-10	1.054937	100	1	100	23.31	0	0	0	0	0	0	0	0	0	0	0;
	196	81.07	20.71	60	-20	1.021915	100	1	200	54.05	0	0	0	0	0	0	0	0	0	0	0;
	197	245.73	1.48	160	-40	1.005341	100	1	500	100	0	0	0	0	0	0	0	0	0	0	0;
	207	27.95	4.02	30	-10	1.016461	100	1	100	18.63	0	0	0	0	0	0	0	0	0	0	0;
	220	97.72	38.87	60	-20	1.055654	100	1	200	65.15	0	0	0	0	0	0	0	0	0	0	0;
	221	97.72	38.87	60	-20	1.055654	100	1	200	65.15	0	0	0	0	0	0	0	0	0	0	0;
	222	97.66	41.74	60	-20	1.051105	100	1	200	65.11	0	0	0	0	0	0	0	0	0	0	0;
	223	97.72	38.87	60	-20	1.055654	100	1	200	65.15	0	0	0	0	0	0	0	0	0	0	0;
	224	97.66	41.74	60	-20	1.051105	100	1	200	65.11	0	0	0	0	0	0	0	0	0	0	0;
	225	97.66	41.74	60	-20	1.051105	100	1	200	65.11	0	0	0	0	0	0	0	0	0	0	0;
	229	21.03	9.77	30	-10	1.034441	100	1	100	14.02	0	0	0	0	0	0	0	0	0	0	0;
	241	601.87	179.7	520	-120	1.037622	100	1	1300	400	0	0	0	0	0	0	0	0	0	0	0;
	243	32.43	17.87	30	-10	1.053647	100	1	100	21.62	0	0	0	0	0	0	0	0	0	0	0;
	248	26.38	8.7	30	-10	1.026279	100	1	100	17.59	0	0	0	0	0	0	0	0	0	0	0;
	250	192.55	1.87	160	-40	1.012099	100	1	400	100	0	0	0	0	0	0	0	0	0	0	0;
	258	8.2	-2.56	10	-10	0.955439	100	1	100	5.47	0	0	0	0	0	0	0	0	0	0	0;
	259	38.51	8.85	30	-10	1.03425	100	1	100	25.67	0	0	0	0	0	0	0	0	0	0	0;
	266	28.48	6.95	30	-10	1.005915	100	1	100	18.99	0	0	0	0	0	0	0	0	0	0	0;
	270	18.4	-1.01	20	-20	1.003342	100	1	100	12.27	0	0	0	0	0	0	0	0	0	0	0;
	271	626.63	195.6	520	-120	1.053159	100	1	1300	400	0	0	0	0	0	0	0	0	0	0	0;
	273	626.63	190.1	520	-120	1.051456	100	1	1300	400	0	0	0	0	0	0	0	0	0	0	0;
	274	626.64	188.59	520	-120	1.051088	100	1	1300	400	0	0	0	0	0	0	0	0	0	0	0;
	275	626.64	188.59	520	-120	1.051088	100	1	1300	400	0	0	0	0	0	0	0	0	0	0	0;
	276	626.64	187.14	520	-120	1.050379	100	1	1300	400	0	0	0	0	0	0	0	0	0	0	0;
	278	627	28.92	320	-190	0.960771	100	1	1300	400	0	0	0	0	0	0	0	0	0	0	0;
	283	8	0.73	10	-10	1.000621	100	1	100	5.33	0	0	0	0	0	0	0	0	0	0	0;
	289	36.9	11.76	30	-10	1.040289	100	1	100	24.6	0	0	0	0	0	0	0	0	0	0	0;
	294	92.8	3.25	50	-50	0.999187	100	1	200	61.87	0	0	0	0	0	0	0	0	0	0	0;
	296	21	0.7	10	-10	0.989117	100	1	100	14	0	0	0	0	0	0	0	0	0	0	0;
	299	158.9	35.36	100	-30	0.993468	100	1	400	100	0	0	0	0	0	0	0	0	0	0	0;
	304	39.98	8.7	30	-10	1.037997	100	1	100	26.65	0	0	0	0	0	0	0	0	0	0	0;
	305	27.73	2	30	-10	1.030407	100	1	100	18.49	0	0	0	0	0	0	0	0	0	0	0;
	306	27.73	2	30	-10	1.030407	100	1	100	18.49	0	0	0	0	0	0	0	0	0	0	0;
	307	17.66	6.95	30	-10	1.049321	100	1	100	11.77	0	0	0	0	0	0	0	0	0	0	0;
	308	17.66	6.95	30	-10	1.049321	100	1	100	11.77	0	0	0	0	0	0	0	0	0	0	0;
	309	32.08	3.64	30	-10	1.05655	100	1	100	21.39	0	0	0	0	0	0	0	0	0	0	0;
	310	32.08	3.64	30	-10	1.05655	100	1	100	21.39	0	0	0	0	0	0	0	0	0	0	0;
	311	32.08	3.64	30	-10	1.05655	100	1	100	21.39	0	0	0	0	0	0	0	0	0	0	0;
	312	32.08	3.64	30	-10	1.05655	100	1	100	21.39	0	0	0	0	0	0	0	0	0	0	0;
	315	2.06	0.62	10	-10	1.021202	100	1	100	1.37	0	0	0	0	0	0	0	0	0	0	0;
	323	419.13	110.83	520	-120	1.016993	100	1	900	200	0	0	0	0	0	0	0	0	0	0	0;
	324	5	1.91	10	-10	1.024179	100	1	100	3.33	0	0	0	0	0	0	0	0	0	0	0;
	325	4.8	-0.12	10	-10	0.996355	100	1	100	3.2	0	0	0	0	0	0	0	0	0	0	0;
	328	54.54	27.56	40	-10	1.023168	100	1	200	36.36	0	0	0	0	0	0	0	0	0	0	0;
	331	27.62	3.89	30	-20	1.006233	100	1	100	18.41	0	0	0	0	0	0	0	0	0	0	0;
	332	2	-0	10	-10	0.996766	100	1	100	1.33	0	0	0	0	0	0	0	0	0	0	0;
	336	16.08	0.01	10	-10	1.010862	100	1	100	10.72	0	0	0	0	0	0	0	0	0	0	0;
	338	16.08	-0.17	10	-10	1.00038	100	1	100	10.72	0	0	0	0	0	0	0	0	0	0	0;
	345	333.1	57.13	210	-50	1.030395	100	1	700	200	0	0	0	0	0	0	0	0	0	0	0;
	346	333.1	57.13	210	-50	1.030395	100	1	700	200	0	0	0	0	0	0	0	0	0	0	0;
	351	167.59	39.08	210	-50	1.024484	100	1	400	100	0	0	0	0	0	0	0	0	0	0	0;
	354	36.42	7.96	30	-10	1.029166	100	1	100	24.28	0	0	0	0	0	0	0	0	0	0	0;
	358	165.24	104.62	210	-50	1.050725	100	1	400	100	0	0	0	0	0	0	0	0	0	0	0;
	360	84.12	16.88	60	-20	1.028641	100	1	200	56.08	0	0	0	0	0	0	0	0	0	0	0;
	361	84.12	16.88	60	-20	1.028641	100	1	200	56.08	0	0	0	0	0	0	0	0	0	0	0;
	362	84.12	16.88	60	-20	1.028641	100	1	200	56.08	0	0	0	0	0	0	0	0	0	0	0;
	363	84.12	16.88	60	-20	1.028641	100	1	200	56.08	0	0	0	0	0	0	0	0	0	0	0;
	364	5.25	0.21	10	-10	1.00564	100	1	100	3.5	0	0	0	0	0	0	0	0	0	0	0;
	365	95.2	36.17	110	-30	0.997585	100	1	200	63.47	0	0	0	0	0	0	0	0	0	0	0;
	368	84.12	16.88	60	-20	1.028641	100	1	200	56.08	0	0	0	0	0	0	0	0	0	0	0;
	369	84.12	16.88	60	-20	1.028641	100	1	200	56.08	0	0	0	0	0	0	0	0	0	0	0;
	382	102.03	10.64	60	-20	0.990596	100	1	300	68.02	0	0	0	0	0	0	0	0	0	0	0;
	383	102.24	30.32	60	-20	1.012482	100	1	300	68.16	0	0	0	0	0	0	0	0	0	0	0;
	392	1.03	0.09	10	-10	1.030636	100	1	100	0.69	0	0	0	0	0	0	0	0	0	0	0;
	394	37.9	13.47	30	-10	1.0326	100	1	100	25.27	0	0	0	0	0	0	0	0	0	0	0;
	395	37.23	4.01	30	-10	1.028283	100	1	100	24.82	0	0	0	0	0	0	0	0	0	0	0;
	396	85.28	21.31	60	-20	1.029542	100	1	200	56.85	0	0	0	0	0	0	0	0	0	0	0;
	400	94.5	8.92	50	-40	0.979015	100	1	200	63	0	0	0	0	0	0	0	0	0	0	0;
	405	33.64	6.9	30	-10	1.00773	100	1	100	22.43	0	0	0	0	0	0	0	0	0	0	0;
	406	33.64	6.9	30	-10	1.00773	100	1	100	22.43	0	0	0	0	0	0	0	0	0	0	0;
	408	34.92	9.74	30	-10	1.043492	100	1	100	23.28	0	0	0	0	0	0	0	0	0	0	0;
	423	0.99	-0.05	10	-10	1.015919	100	1	100	0.66	0	0	0	0	0	0	0	0	0	0	0;
	432	4.5	0.47	10	-10	1.016602	100	1	100	3	0	0	0	0	0	0	0	0	0	0	0;
	433	30.04	7.71	30	-10	1.011489	100	1	100	20.03	0	0	0	0	0	0	0	0	0	0	0;
	438	18.13	3.85	30	-10	1.016716	100	1	100	12.09	0	0	0	0	0	0	0	0	0	0	0;
	442	31.35	11.33	30	-10	1.043357	100	1	100	20.9	0	0	0	0	0	0	0	0	0	0	0;
	448	25.22	6.35	20	-10	1.038795	100	1	100	16.81	0	0	0	0	0	0	0	0	0	0	0;
	454	8.35	-1.53	10	-10	0.973833	100	1	100	5.57	0	0	0	0	0	0	0	0	0	0	0;
	458	31.28	-0.92	30	-10	1.009892	100	1	100	20.85	0	0	0	0	0	0	0	0	0	0	0;
	463	-19.98	270.34	100000	-100000	1.126642	100	1	100	-26.64	0	0	0	0	0	0	0	0	0	0	0;
	470	74.8	42.23	60	-20	1.046905	100	1	200	49.87	0	0	0	0	0	0	0	0	0	0	0;
	476	214.05	76.67	210	-50	1.029484	100	1	500	100	0	0	0	0	0	0	0	0	0	0	0;
	477	38.02	11.21	30	-10	1.043087	100	1	100	25.35	0	0	0	0	0	0	0	0	0	0	0;
	480	89.2	18.25	60	-20	1.033425	100	1	200	59.47	0	0	0	0	0	0	0	0	0	0	0;
	481	89.2	18.25	60	-20	1.033425	100	1	200	59.47	0	0	0	0	0	0	0	0	0	0	0;
	482	89.2	18.25	60	-20	1.033425	100	1	200	59.47	0	0	0	0	0	0	0	0	0	0	0;
	483	89.2	18.25	60	-20	1.033425	100	1	200	59.47	0	0	0	0	0	0	0	0	0	0	0;
	485	325.03	139.06	210	-50	1.059619	100	1	700	200	0	0	0	0	0	0	0	0	0	0	0;
	492	273.28	112.89	210	-50	1.041985	100	1	600	100	0	0	0	0	0	0	0	0	0	0	0;
	496	64.28	29.97	60	-20	1.00876	100	1	200	42.85	0	0	0	0	0	0	0	0	0	0	0;
	508	857.64	276.43	520	-120	1.044776	100	1	1800	500	0	0	0	0	0	0	0	0	0	0	0;
	509	857.69	282.91	520	-120	1.044388	100	1	1800	500	0	0	0	0	0	0	0	0	0	0	0;
	510	857.66	271.49	520	-120	1.044096	100	1	1800	500	0	0	0	0	0	0	0	0	0	0	0;
	514	857.64	273.87	520	-120	1.044511	100	1	1800	500	0	0	0	0	0	0	0	0	0	0	0;
	516	32.57	7.29	30	-10	1.041748	100	1	100	21.71	0	0	0	0	0	0	0	0	0	0	0;
	528	23.66	2.76	30	-10	1.020703	100	1	100	15.77	0	0	0	0	0	0	0	0	0	0	0;
	531	38.79	7.11	30	-10	1.035838	100	1	100	25.86	0	0	0	0	0	0	0	0	0	0	0;
	532	258.95	65.97	210	-50	1.036699	100	1	600	100	0	0	0	0	0	0	0	0	0	0	0;
	533	164.92	6.68	160	-40	1.016377	100	1	400	100	0	0	0	0	0	0	0	0	0	0	0;
	539	152	33.4	90	-40	0.993492	100	1	400	100	0	0	0	0	0	0	0	0	0	0	0;
	552	30.6	-1.46	20	-20	0.99834	100	1	100	20.4	0	0	0	0	0	0	0	0	0	0	0;
	559	51.5	-7.54	30	-30	0.954584	100	1	200	34.33	0	0	0	0	0	0	0	0	0	0	0;
	564	21.77	6.35	30	-10	1.024499	100	1	100	14.51	0	0	0	0	0	0	0	0	0	0	0;
	572	7	0.9	10	-10	1.004314	100	1	100	4.67	0	0	0	0	0	0	0	0	0	0	0;
	575	18.09	1.85	30	-10	1.016739	100	1	100	12.06	0	0	0	0	0	0	0	0	0	0	0;
	576	18.09	1.85	30	-10	1.016739	100	1	100	12.06	0	0	0	0	0	0	0	0	0	0	0;
	577	18.09	1.85	30	-10	1.016739	100	1	100	12.06	0	0	0	0	0	0	0	0	0	0	0;
	581	18.09	1.85	30	-10	1.016739	100	1	100	12.06	0	0	0	0	0	0	0	0	0	0	0;
	585	72.61	29.56	60	-20	1.041629	100	1	200	48.41	0	0	0	0	0	0	0	0	0	0	0;
	589	13.38	0.68	10	-10	1.00755	100	1	100	8.92	0	0	0	0	0	0	0	0	0	0	0;
	610	31.95	15.26	30	-10	1.019723	100	1	100	21.3	0	0	0	0	0	0	0	0	0	0	0;
	614	34.81	16.31	40	-10	1.031902	100	1	100	23.21	0	0	0	0	0	0	0	0	0	0	0;
	615	34.81	16.31	40	-10	1.031902	100	1	100	23.21	0	0	0	0	0	0	0	0	0	0	0;
	619	42.5	5.74	40	-10	1.031502	100	1	100	28.33	0	0	0	0	0	0	0	0	0	0	0;
	621	5.8	-0.78	10	-10	1.003942	100	1	100	3.87	0	0	0	0	0	0	0	0	0	0	0;
	623	36.03	16.08	30	-10	1.045359	100	1	100	24.02	0	0	0	0	0	0	0	0	0	0	0;
	626	43.29	23.54	60	-20	1.035771	100	1	100	28.86	0	0	0	0	0	0	0	0	0	0	0;
	635	0.13	-0.1	10	-10	1.023511	100	1	100	0.09	0	0	0	0	0	0	0	0	0	0	0;
	637	25.22	5.17	30	-10	1.04616	100	1	100	16.81	0	0	0	0	0	0	0	0	0	0	0;
	646	333.1	57.13	210	-50	1.030395	100	1	700	200	0	0	0	0	0	0	0	0	0	0	0;
	648	322.05	10.4	210	-50	1.007781	100	1	700	200	0	0	0	0	0	0	0	0	0	0	0;
	649	333.1	57.13	210	-50	1.030395	100	1	700	200	0	0	0	0	0	0	0	0	0	0	0;
	651	188.27	-7.75	210	-50	1.028351	100	1	400	100	0	0	0	0	0	0	0	0	0	0	0;
	652	188.27	-7.75	210	-50	1.028351	100	1	400	100	0	0	0	0	0	0	0	0	0	0	0;
	654	92.4	2.72	60	-20	1.014507	100	1	200	61.6	0	0	0	0	0	0	0	0	0	0	0;
	660	33.21	5.47	30	-10	1.022689	100	1	100	22.14	0	0	0	0	0	0	0	0	0	0	0;
	666	31.3	-0.77	30	-10	1.018739	100	1	100	20.87	0	0	0	0	0	0	0	0	0	0	0;
	671	25.2	-0.32	20	-10	0.999061	100	1	100	16.8	0	0	0	0	0	0	0	0	0	0	0;
	676	274.65	30.64	160	-40	1.018066	100	1	600	100	0	0	0	0	0	0	0	0	0	0	0;
	681	84.68	7.94	60	-20	1.00657	100	1	200	56.45	0	0	0	0	0	0	0	0	0	0	0;
	684	68.89	19.23	60	-20	1.035618	100	1	200	45.93	0	0	0	0	0	0	0	0	0	0	0;
	693	209.96	80.03	160	-40	1.038999	100	1	500	100	0	0	0	0	0	0	0	0	0	0	0;
	695	8.4	-0.84	10	-10	1.010516	100	1	100	5.6	0	0	0	0	0	0	0	0	0	0	0;
	698	26.72	4.41	20	-10	1.018527	100	1	100	17.81	0	0	0	0	0	0	0	0	0	0	0;
	709	626.68	236.63	520	-120	1.051727	100	1	1300	400	0	0	0	0	0	0	0	0	0	0	0;
	715	23.9	3.61	30	-10	1.007844	100	1	100	15.93	0	0	0	0	0	0	0	0	0	0	0;
	717	23.12	5.58	10	0	1.027572	100	1	100	15.41	0	0	0	0	0	0	0	0	0	0	0;
	721	74.35	10.28	60	-20	0.992442	100	1	200	49.57	0	0	0	0	0	0	0	0	0	0	0;
	724	35.5	10.89	30	-10	1.045213	100	1	100	23.67	0	0	0	0	0	0	0	0	0	0	0;
	730	98.46	12.34	60	-20	1.01458	100	1	200	65.64	0	0	0	0	0	0	0	0	0	0	0;
	731	98.46	12.34	60	-20	1.01458	100	1	200	65.64	0	0	0	0	0	0	0	0	0	0	0;
	732	98.46	12.34	60	-20	1.01458	100	1	200	65.64	0	0	0	0	0	0	0	0	0	0	0;
	734	98.46	12.34	60	-20	1.01458	100	1	200	65.64	0	0	0	0	0	0	0	0	0	0	0;
	746	16	0.19	10	-10	0.994194	100	1	100	10.67	0	0	0	0	0	0	0	0	0	0	0;
	749	22.58	9.34	30	-10	1.009791	100	1	100	15.05	0	0	0	0	0	0	0	0	0	0	0;
	750	22.58	9.34	30	-10	1.009791	100	1	100	15.05	0	0	0	0	0	0	0	0	0	0	0;
	751	22.58	9.34	30	-10	1.009791	100	1	100	15.05	0	0	0	0	0	0	0	0	0	0	0;
	753	20.64	7.21	30	-10	1.018866	100	1	100	13.76	0	0	0	0	0	0	0	0	0	0	0;
	754	64.65	13.16	60	-20	1.009683	100	1	200	43.1	0	0	0	0	0	0	0	0	0	0	0;
	765	78.37	30.34	60	-20	1.032985	100	1	200	52.25	0	0	0	0	0	0	0	0	0	0	0;
...
];

%% branch data
%	fbus	tbus	r	x	b	rateA	rateB	rateC	ratio	angle	status	angmin	angmax
mpc.branch = [
	7519	4482	0.0006	0.00616	0	0	0	0	0	0	1	-360	360;
	7519	11823	0.0005	0.0074	0	0	0	0	0	0	1	-360	360;
	3073	4516	0.00107	0.00626	0	0	0	0	0	0	1	-360	360;
	3073	4706	0.000841	0.0055	0	0	0	0	0	0	1	-360	360;
	5157	1032	0.00143	0.01563	0	0	0	0	0	0	1	-360	360;
	5157	6653	0.00146	0.01692	0	0	0	0	0	0	1	-360	360;
	628	7896	7e-05	0.00057	0	0	0	0	0	0	1	-360	360;
	628	6592	6e-05	0.00056	0	0	0	0	0	0	1	-360	360;
	11792	10888	0.003349	0.01656	0	0	0	0	0	0	1	-360	360;
	11792	4609	0.003409	0.016211	0	0	0	0	0	0	1	-360	360;
	6573	10888	0.003479	0.01586	0	0	0	0	0	0	1	-360	360;
	6573	4609	0.003099	0.017969	0	0	0	0	0	0	1	-360	360;
	782	13300	0.00127	0.01842	0	0	0	0	0	0	1	-360	360;
	782	1186	0.00126	0.01847	0	0	0	0	0	0	1	-360	360;
	11715	924	0.0013	0.01808	0	0	0	0	0	0	1	-360	360;
	11715	12182	0.00131	0.01765	0	0	0	0	0	0	1	-360	360;
	10257	2582	0.00065	0.01311	0	0	0	0	0	0	1	-360	360;
	10257	9363	0.00067	0.00974	0	0	0	0	0	0	1	-360	360;
	7595	11501	0.00236	0.01418	0	0	0	0	0	0	1	-360	360;
	7595	11390	0.002169	0.015909	0	0	0	0	0	0	1	-360	360;
	6873	1806	0.00027	0.00254	0	0	0	0	0	0	1	-360	360;
	6873	11151	0.00027	0.00259	0	0	0	0	0	0	1	-360	360;
	11949	1806	0.00033	0.00302	0	0	0	0	0	0	1	-360	360;
	11949	1269	0.00029	0.00312	0	0	0	0	0	0	1	-360	360;
	2623	3359	0.000289	0.00137	0	0	0	0	0	0	1	-360	360;
	2623	11159	0.000219	0.00263	0	0	0	0	0	0	1	-360	360;
	3020	3359	0.000289	0.001341	0	0	0	0	0	0	1	-360	360;
	3020	12995	0.000229	0.00257	0	0	0	0	0	0	1	-360	360;
	9670	3359	0.000841	0.00689	0	0	0	0	0	0	1	-360	360;
	9670	2360	0.000979	0.00586	0	0	0	0	0	0	1	-360	360;
	8390	3359	0.00014	0.0012	0	0	0	0	0	0	1	-360	360;
	8390	11515	0.000211	0.001539	0	0	0	0	0	0	1	-360	360;
	12630	3359	0.000401	0.004901	0	0	0	0	0	0	1	-360	360;
	12630	11515	0.000219	0.00151	0	0	0	0	0	0	1	-360	360;
	3340	3359	0.000729	0.004539	0	0	0	0	0	0	1	-360	360;
	3340	3953	0.00062	0.00482	0	0	0	0	0	0	1	-360	360;
	7444	8848	0.00052	0.00407	0	0	0	0	0	0	1	-360	360;
	7444	5026	0.00034	0.00502	0	0	0	0	0	0	1	-360	360;
	11055	8848	0.00065	0.00698	0	0	0	0	0	0	1	-360	360;
	11055	13067	0.00059	0.00806	0	0	0	0	0	0	1	-360	360;
	9857	13125	0.00063	0.00464	0	0	0	0	0	0	1	-360	360;
	9857	12598	0.000599	0.005099	0	0	0	0	0	0	1	-360	360;
	7256	7011	0.00064	0.00307	0	0	0	0	0	0	1	-360	360;
	7256	11232	0.000659	0.003	0	0	0	0	0	0	1	-360	360;
	12732	9895	0.00053	0.00528	0	0	0	0	0	0	1	-360	360;
	12732	4416	0.00056	0.0053	0	0	0	0	0	0	1	-360	360;
	4494	7011	0.0018	0.007919	0	0	0	0	0	0	1	-360	360;
	4494	10481	0.001651	0.00862	0	0	0	0	0	0	1	-360	360;
	7913	9895	0.00045	0.00545	0	0	0	0	0	0	1	-360	360;
	7913	1269	0.00052	0.00476	0	0	0	0	0	0	1	-360	360;
	3258	10043	0.01286	0.037421	0	0	0	0	0	0	1	-360	360;
	3258	8238	0.032397	0.123	0	0	0	0	0	0	1	-360	360;
	697	10043	0.032851	0.069727	0	0	0	0	0	0	1	-360	360;
	697	11841	0.059942	0.112802	0	0	0	0	0	0	1	-360	360;
	11629	10942	0.00011	0.00109	0	0	0	0	0	0	1	-360	360;
	11629	13171	0.00011	0.00107	0	0	0	0	0	0	1	-360	360;
	9089	11260	0.000461	0.00395	0	0	0	0	0	0	1	-360	360;
	9089	7609	0.000599	0.003789	0	0	0	0	0	0	1	-360	360;
	13119	3581	0.00173	0.01542	0	0	0	0	0	0	1	-360	360;
	13119	6381	0.00166	0.02083	0	0	0	0	0	0	1	-360	360;
	5075	13106	0.006314	0.018488	0	0	0	0	0	0	1	-360	360;
	5075	9503	0.015727	0.037669	0	0	0	0	0	0	1	-360	360;
	11048	10312	0.00374	0.02095	0	0	0	0	0	0	1	-360	360;
	11048	3185	0.00511	0.019461	0	0	0	0	0	0	1	-360	360;
	1538	4109	0.011281	0.050771	0	0	0	0	0	0	1	-360	360;
	1538	3721	0.0115	0.049719	0	0	0	0	0	0	1	-360	360;
	5803	4109	0.011719	0.048659	0	0	0	0	0	0	1	-360	360;
	5803	3721	0.01193	0.047599	0	0	0	0	0	0	1	-360	360;
	189	4268	0.00064	0.00715	0	0	0	0	0	0	1	-360	360;
	189	11488	0.00089	0.00712	0	0	0	0	0	0	1	-360	360;
	7384	1009	0.00048	0.00555	0	0	0	0	0	0	1	-360	360;
	7384	11547	0.00047	0.00566	0	0	0	0	0	0	1	-360	360;
	11070	1009	0.00046	0.00524	0	0	0	0	0	0	1	-360	360;
	11070	11547	0.00052	0.00514	0	0	0	0	0	0	1	-360	360;
	2061	6603	0.00438	0.010686	0	0	0	0	0	0	1	-360	360;
	2061	9733	0.031347	0.062653	0	0	0	0	0	0	1	-360	360;
	9502	7241	0.00029	0.00298	0	0	0	0	0	0	1	-360	360;
	9502	8865	0.0003	0.00291	0	0	0	0	0	0	1	-360	360;
	12336	13321	0.00155	0.01529	0	0	0	0	0	0	1	-360	360;
	12336	494	0.00148	0.0152	0	0	0	0	0	0	1	-360	360;
	13540	11971	0.000169	0.00096	0	0	0	0	0	0	1	-360	360;
	13540	330	0.000182	0.000942	0	0	0	0	0	0	1	-360	360;
	8250	622	0.00016	0.00184	0	0	0	0	0	0	1	-360	360;
	8250	8646	0.00022	0.00287	0	0	0	0	0	0	1	-360	360;
	5656	9506	0.00015	0.00187	0	0	0	0	0	0	1	-360	360;
	5656	7003	0.00022	0.00266	0	0	0	0	0	0	1	-360	360;
	8767	13151	0.00138	0.0174	0	0	0	0	0	0	1	-360	360;
	8767	256	0.00272	0.0288	0	0	0	0	0	0	1	-360	360;
	11952	7565	0.00065	0.01024	0	0	0	0	0	0	1	-360	360;
	11952	8750	0.00073	0.01004	0	0	0	0	0	0	1	-360	360;
	13220	7565	0.00075	0.00983	0	0	0	0	0	0	1	-360	360;
	13220	8750	0.00076	0.00963	0	0	0	0	0	0	1	-360	360;
	10465	10831	0.00042	0.02666	0	0	0	0	0	0	1	-360	360;
	8079	10358	0.00029	0.0026	0	0	0	0	0	0	1	-360	360;
	8079	8404	0.00022	0.00303	0	0	0	0	0	0	1	-360	360;
	7197	5524	0.001	0.006159	0	0	0	0	0	0	1	-360	360;
	7197	11931	0.00113	0.00657	0	0	0	0	0	0	1	-360	360;
	1721	12153	0.0013	0.01277	0	0	0	0	0	0	1	-360	360;
	1721	10744	0.00163	0.01808	0	0	0	0	0	0	1	-360	360;
	8400	850	0.00047	0.00406	0	0	0	0	0	0	1	-360	360;
	8400	8575	0.00235	0.02343	0	0	0	0	0	0	1	-360	360;
	9020	2201	0.00036	0.00445	0	0	0	0	0	0	1	-360	360;
	9020	2350	0.00017	0.0025	0	0	0	0	0	0	1	-360	360;
	6435	2201	0.00036	0.00436	0	0	0	0	0	0	1	-360	360;
	6435	3448	0.00017	0.00255	0	0	0	0	0	0	1	-360	360;
	3223	4642	0.00096	0.00995	0	0	0	0	0	0	1	-360	360;
	3223	9919	0.00152	0.01949	0	0	0	0	0	0	1	-360	360;
	7755	4642	0.00094	0.01014	0	0	0	0	0	0	1	-360	360;
	7755	9919	0.00149	0.01986	0	0	0	0	0	0	1	-360	360;
	4129	4642	0.00107	0.01243	0	0	0	0	0	0	1	-360	360;
	4129	3715	0.00102	0.01034	0	0	0	0	0	0	1	-360	360;
	5471	7106	0.0047	0.02061	0	0	0	0	0	0	1	-360	360;
	5471	5434	0.00739	0.040531	0	0	0	0	0	0	1	-360	360;
	8834	12770	0.00049	0.00611	0	0	0	0	0	0	1	-360	360;
	8834	10744	0.00035	0.00431	0	0	0	0	0	0	1	-360	360;
	7831	1467	0.00261	0.01344	0	0	0	0	0	0	1	-360	360;
	7831	5173	0.003521	0.019591	0	0	0	0	0	0	1	-360	360;
	10033	5005	0.0025	0.01419	0	0	0	0	0	0	1	-360	360;
	10033	7387	0.00287	0.0237	0	0	0	0	0	0	1	-360	360;
	9789	9848	0.00088	0.00956	0	0	0	0	0	0	1	-360	360;
	9789	430	0.00095	0.00877	0	0	0	0	0	0	1	-360	360;
	2916	1094	0.00332	0.020651	0	0	0	0	0	0	1	-360	360;
	2916	2869	0.003969	0.018781	0	0	0	0	0	0	1	-360	360;
	4142	3925	0.002849	0.014909	0	0	0	0	0	0	1	-360	360;
	4142	2245	0.00439	0.02451	0	0	0	0	0	0	1	-360	360;
	123	12854	0.0002	0.0018	0	0	0	0	0	0	1	-360	360;
	123	12369	0.00025	0.00261	0	0	0	0	0	0	1	-360	360;
	10806	12854	0.0002	0.00176	0	0	0	0	0	0	1	-360	360;
	10806	1112	0.00025	0.00255	0	0	0	0	0	0	1	-360	360;
	12593	9027	0.012488	0.047413	0	0	0	0	0	0	1	-360	360;
	12593	455	0.010479	0.027711	0	0	0	0	0	0	1	-360	360;
	3745	10922	0.00044	0.00428	0	0	0	0	0	0	1	-360	360;
	3745	1898	0.00036	0.00475	0	0	0	0	0	0	1	-360	360;
	6938	7640	0.00058	0.00534	0	0	0	0	0	0	1	-360	360;
	6938	4543	0.00054	0.00589	0	0	0	0	0	0	1	-360	360;
	4229	2024	0.00206	0.02057	0	0	0	0	0	0	1	-360	360;
	4229	9388	0.00077	0.00872	0	0	0	0	0	0	1	-360	360;
	5543	13575	0.00161	0.01963	0	0	0	0	0	0	1	-360	360;
	5543	9388	0.00075	0.00888	0	0	0	0	0	0	1	-360	360;
	2764	10638	0.00016	0.00152	0	0	0	0	0	0	1	-360	360;
	2764	10338	0.00019	0.00163	0	0	0	0	0	0	1	-360	360;
	7963	10638	0.00015	0.0016	0	0	0	0	0	0	1	-360	360;
	7963	10338	0.00015	0.00183	0	0	0	0	0	0	1	-360	360;
	5383	4802	0.00121	0.01426	0	0	0	0	0	0	1	-360	360;
	5383	8035	0.00116	0.01456	0	0	0	0	0	0	1	-360	360;
	663	204	0.00068	0.00727	0	0	0	0	0	0	1	-360	360;
	663	6973	0.0007	0.00734	0	0	0	0	0	0	1	-360	360;
	11598	204	0.00076	0.00712	0	0	0	0	0	0	1	-360	360;
	11598	6973	0.0008	0.00719	0	0	0	0	0	0	1	-360	360;
	2983	2257	0.0002	0.0022	0	0	0	0	0	0	1	-360	360;
	2983	10869	0.0002	0.0022	0	0	0	0	0	0	1	-360	360;
	411	4997	0.000205	0.00215	0	0	0	0	0	0	1	-360	360;
	411	10869	0.000205	0.00215	0	0	0	0	0	0	1	-360	360;
	8649	12423	0.00053	0.00589	0	0	0	0	0	0	1	-360	360;
	8649	1165	0.00046	0.00675	0	0	0	0	0	0	1	-360	360;
	13485	12423	0.00054	0.00577	0	0	0	0	0	0	1	-360	360;
	13485	1165	0.00045	0.00625	0	0	0	0	0	0	1	-360	360;
	2363	2209	0.00275	0.02752	0	0	0	0	0	0	1	-360	360;
	2363	11249	0.00184	0.01515	0	0	0	0	0	0	1	-360	360;
	3314	10019	0.00438	0.02432	0	0	0	0	0	0	1	-360	360;
	3314	879	0.0043	0.01949	0	0	0	0	0	0	1	-360	360;
	12347	10227	0.00033	0.00269	0	0	0	0	0	0	1	-360	360;
	12347	2517	0.00243	0.01904	0	0	0	0	0	0	1	-360	360;
	1326	10227	0.00034	0.00263	0	0	0	0	0	0	1	-360	360;
	1326	2517	0.00248	0.01864	0	0	0	0	0	0	1	-360	360;
	9864	13169	0.00122	0.01249	0	0	0	0	0	0	1	-360	360;
	9864	5959	0.00106	0.01031	0	0	0	0	0	0	1	-360	360;
	4830	13169	0.00119	0.01273	0	0	0	0	0	0	1	-360	360;
	4830	5959	0.00108	0.01009	0	0	0	0	0	0	1	-360	360;
	12318	6464	0.001039	0.013711	0	0	0	0	0	0	1	-360	360;
	12318	7516	0.00114	0.011409	0	0	0	0	0	0	1	-360	360;
	11537	8566	0.001021	0.013969	0	0	0	0	0	0	1	-360	360;
	11537	7516	0.001169	0.011159	0	0	0	0	0	0	1	-360	360;
	13343	12066	0	0.000271	0	0	0	0	0	0	1	-360	360;
	3313	12066	0	0.000271	0	0	0	0	0	0	1	-360	360;
	1196	218	0.009372	0.035702	0	0	0	0	0	0	1	-360	360;
	1196	3002	0.029157	0.103686	0	0	0	0	0	0	1	-360	360;
	780	8041	0.00065	0.00673	0	0	0	0	0	0	1	-360	360;
	780	6114	0.00066	0.00658	0	0	0	0	0	0	1	-360	360;
	5179	3568	0.000969	0.006021	0	0	0	0	0	0	1	-360	360;
	5179	3085	0.00099	0.005901	0	0	0	0	0	0	1	-360	360;
	1666	7897	0.00088	0.006599	0	0	0	0	0	0	1	-360	360;
	1666	6301	0.00086	0.006729	0	0	0	0	0	0	1	-360	360;
	12861	4782	9e-05	0.00077	0	0	0	0	0	0	1	-360	360;
	12861	6207	9e-05	0.00078	0	0	0	0	0	0	1	-360	360;
	7212	4782	8e-05	0.00082	0	0	0	0	0	0	1	-360	360;
	7212	11151	8e-05	0.00076	0	0	0	0	0	0	1	-360	360;
	9869	8041	9e-05	0.00074	0	0	0	0	0	0	1	-360	360;
	9869	6207	9e-05	0.00073	0	0	0	0	0	0	1	-360	360;
	6015	3568	0.00062	0.003781	0	0	0	0	0	0	1	-360	360;
	6015	1131	0.000599	0.0035	0	0	0	0	0	0	1	-360	360;
	10035	7897	0.00064	0.00274	0	0	0	0	0	0	1	-360	360;
	10035	1910	0.000651	0.00268	0	0	0	0	0	0	1	-360	360;
	9951	1939	0.00055	0.00685	0	0	0	0	0	0	1	-360	360;
	9951	557	0.00061	0.00639	0	0	0	0	0	0	1	-360	360;
	8771	8041	0.00042	0.00523	0	0	0	0	0	0	1	-360	360;
	8771	12272	0.00045	0.00605	0	0	0	0	0	0	1	-360	360;
	8284	4782	0.0003	0.00228	0	0	0	0	0	0	1	-360	360;
	8284	13171	0.00026	0.00264	0	0	0	0	0	0	1	-360	360;
	4891	7738	0.00536	0.03568	0	0	0	0	0	0	1	-360	360;
...
];

%%-----  OPF Data  -----%%
%% generator cost data
%	1	startup	shutdown	n	x1	y1	...	xn	yn
%	2	startup	shutdown	n	c(n-1)	...	c0
mpc.gencost = [
	2	0	0	3	0	1	0;
	2	0	0	3	0	1	0;
	2	0	0	3	0	1	0;
	2	0	0	3	0	1	0;
	2	0	0	3	0	1	0;
	2	0	0	3	0	1	0;
	2	0	0	3	0	1	0;
	2	0	0	3	0	1	0;
	2	0	0	3	0	1	0;
	2	0	0	3	0	1	0;
	2	0	0	3	0	1	0;
	2	0	0	3	0	1	0;
	2	0	0	3	0	1	0;
	2	0	0	3	0	1	0;
	2	0	0	3	0	1	0;
	2	0	0	3	0	1	0;
	2	0	0	3	0	1	0;
	2	0	0	3	0	1	0;
	2	0	0	3	0	1	0;
	2	0	0	3	0	1	0;
	2	0	0	3	0	1	0;
	2	0	0	3	0	1	0;
	2	0	0	3	0	1	0;
	2	0	0	3	0	1	0;
	2	0	0	3	0	1	0;
	2	0	0	3	0	1	0;
	2	0	0	3	0	1	0;
	2	0	0	3	0	1	0;
	2	0	0	3	0	1	0;
	2	0	0	3	0	1	0;
	2	0	0	3	0	1	0;
	2	0	0	3	0	1	0;
	2	0	0	3	0	1	0;
	2	0	0	3	0	1	0;
	2	0	0	3	0	1	0;
	2	0	0	3	0	1	0;
	2	0	0	3	0	1	0;
	2	0	0	3	0	1	0;
	2	0	0	3	0	1	0;
	2	0	0	3	0	1	0;
	2	0	0	3	0	1	0;
	2	0	0	3	0	1	0;
	2	0	0	3	0	1	0;
	2	0	0	3	0	1	0;
	2	0	0	3	0	1	0;
	2	0	0	3	0	1	0;
	2	0	0	3	0	1	0;
	2	0	0	3	0	1	0;
	2	0	0	3	0	1	0;
	2	0	0	3	0	1	0;
	2	0	0	3	0	1	0;
	2	0	0	3	0	1	0;
	2	0	0	3	0	1	0;
	2	0	0	3	0	1	0;
	2	0	0	3	0	1	0;
	2	0	0	3	0	1	0;
	2	0	0	3	0	1	0;
	2	0	0	3	0	1	0;
	2	0	0	3	0	1	0;
	2	0	0	3	0	1	0;
	2	0	0	3	0	1	0;
	2	0	0	3	0	1	0;
	2	0	0	3	0	1	0;
	2	0	0	3	0	1	0;
	2	0	0	3	0	1	0;
	2	0	0	3	0	1	0;
	2	0	0	3	0	1	0;
	2	0	0	3	0	1	0;
	2	0	0	3	0	1	0;
	2	0	0	3	0	1	0;
	2	0	0	3	0	1	0;
	2	0	0	3	0	1	0;
	2	0	0	3	0	1	0;
	2	0	0	3	0	1	0;
	2	0	0	3	0	1	0;
	2	0	0	3	0	1	0;
	2	0	0	3	0	1	0;
	2	0	0	3	0	1	0;
	2	0	0	3	0	1	0;
	2	0	0	3	0	1	0;
	2	0	0	3	0	1	0;
	2	0	0	3	0	1	0;
	2	0	0	3	0	1	0;
	2	0	0	3	0	1	0;
	2	0	0	3	0	1	0;
	2	0	0	3	0	1	0;
	2	0	0	3	0	1	0;
	2	0	0	3	0	1	0;
	2	0	0	3	0	1	0;
	2	0	0	3	0	1	0;
	2	0	0	3	0	1	0;
	2	0	0	3	0	1	0;
	2	0	0	3	0	1	0;
	2	0	0	3	0	1	0;
	2	0	0	3	0	1	0;
	2	0	0	3	0	1	0;
	2	0	0	3	0	1	0;
	2	0	0	3	0	1	0;
	2	0	0	3	0	1	0;
	2	0	0	3	0	1	0;
	2	0	0	3	0	1	0;
	2	0	0	3	0	1	0;
	2	0	0	3	0	1	0;
	2	0	0	3	0	1	0;
	2	0	0	3	0	1	0;
	2	0	0	3	0	1	0;
	2	0	0	3	0	1	0;
	2	0	0	3	0	1	0;
	2	0	0	3	0	1	0;
	2	0	0	3	0	1	0;
	2	0	0	3	0	1	0;
	2	0	0	3	0	1	0;
	2	0	0	3	0	1	0;
	2	0	0	3	0	1	0;
	2	0	0	3	0	1	0;
	2	0	0	3	0	1	0;
	2	0	0	3	0	1	0;
	2	0	0	3	0	1	0;
	2	0	0	3	0	1	0;
	2	0	0	3	0	1	0;
	2	0	0	3	0	1	0;
	2	0	0	3	0	1	0;
	2	0	0	3	0	1	0;
	2	0	0	3	0	1	0;
	2	0	0	3	0	1	0;
	2	0	0	3	0	1	0;
	2	0	0	3	0	1	0;
	2	0	0	3	0	1	0;
	2	0	0	3	0	1	0;
	2	0	0	3	0	1	0;
	2	0	0	3	0	1	0;
	2	0	0	3	0	1	0;
	2	0	0	3	0	1	0;
	2	0	0	3	0	1	0;
	2	0	0	3	0	1	0;
	2	0	0	3	0	1	0;
	2	0	0	3	0	1	0;
	2	0	0	3	0	1	0;
	2	0	0	3	0	1	0;
	2	0	0	3	0	1	0;
	2	0	0	3	0	1	0;
	2	0	0	3	0	1	0;
	2	0	0	3	0	1	0;
	2	0	0	3	0	1	0;
	2	0	0	3	0	1	0;
	2	0	0	3	0	1	0;
	2	0	0	3	0	1	0;
	2	0	0	3	0	1	0;
	2	0	0	3	0	1	0;
	2	0	0	3	0	1	0;
	2	0	0	3	0	1	0;
	2	0	0	3	0	1	0;
	2	0	0	3	0	1	0;
	2	0	0	3	0	1	0;
	2	0	0	3	0	1	0;
	2	0	0	3	0	1	0;
	2	0	0	3	0	1	0;
	2	0	0	3	0	1	0;
	2	0	0	3	0	1	0;
	2	0	0	3	0	1	0;
	2	0	0	3	0	1	0;
	2	0	0	3	0	1	0;
	2	0	0	3	0	1	0;
	2	0	0	3	0	1	0;
	2	0	0	3	0	1	0;
	2	0	0	3	0	1	0;
	2	0	0	3	0	1	0;
	2	0	0	3	0	1	0;
	2	0	0	3	0	1	0;
	2	0	0	3	0	1	0;
	2	0	0	3	0	1	0;
	2	0	0	3	0	1	0;
	2	0	0	3	0	1	0;
	2	0	0	3	0	1	0;
	2	0	0	3	0	1	0;
	2	0	0	3	0	1	0;
	2	0	0	3	0	1	0;
	2	0	0	3	0	1	0;
	2	0	0	3	0	1	0;
	2	0	0	3	0	1	0;
	2	0	0	3	0	1	0;
	2	0	0	3	0	1	0;
	2	0	0	3	0	1	0;
	2	0	0	3	0	1	0;
	2	0	0	3	0	1	0;
	2	0	0	3	0	1	0;
	2	0	0	3	0	1	0;
	2	0	0	3	0	1	0;
	2	0	0	3	0	1	0;
	2	0	0	3	0	1	0;
	2	0	0	3	0	1	0;
	2	0	0	3	0	1	0;
	2	0	0	3	0	1	0;
	2	0	0	3	0	1	0;
	2	0	0	3	0	1	0;
	2	0	0	3	0	1	0;
	2	0	0	3	0	1	0;
	2	0	0	3	0	1	0;
	2	0	0	3	0	1	0;
	2	0	0	3	0	1	0;
...
];
